# Packages
 &PACKAGES
 useOBCS=.TRUE.,
 useMNC=.FALSE.,
 &
